Circuit: *** SPICE deck for cell carry-out{sch} from library carry-out

Direct Newton iteration for .op point succeeded.

delay_a_to_y=5.06415e-010 FROM 1.45e-009 TO 1.95642e-009


Date: Wed Sep 20 15:28:55 2023
Total elapsed time: 0.162 seconds.

tnom = 27
temp = 27
method = modified trap
totiter = 2264
traniter = 2257
tranpoints = 1106
accept = 1089
rejected = 17
matrix size = 53
fillins = 0
solver = Normal
Matrix Compiler1: 5.88 KB object code size  1.3/0.7/[0.4]
Matrix Compiler2: 6.43 KB object code size  0.4/0.7/[0.4]

