Circuit: *** SPICE deck for cell carry-out-2x{lay} from library carry-out-2x

Direct Newton iteration for .op point succeeded.

delay_a_to_y=-3.30187e-010 FROM 9.5e-010 TO 6.19813e-010


Date: Wed Sep 27 22:04:21 2023
Total elapsed time: 0.190 seconds.

tnom = 27
temp = 27
method = modified trap
totiter = 2284
traniter = 2276
tranpoints = 1098
accept = 1088
rejected = 10
matrix size = 77
fillins = 0
solver = Normal
Matrix Compiler1: 8.93 KB object code size  2.0/0.8/[0.6]
Matrix Compiler2: 9.50 KB object code size  0.6/0.9/[0.6]

