Circuit: *** SPICE deck for cell carry-out-2x{sch} from library carry-out-2x

Direct Newton iteration for .op point succeeded.

delay_a_to_y=-3.3158e-010 FROM 9.5e-010 TO 6.1842e-010


Date: Fri Oct 27 13:52:43 2023
Total elapsed time: 0.238 seconds.

tnom = 27
temp = 27
method = modified trap
totiter = 2289
traniter = 2282
tranpoints = 1098
accept = 1088
rejected = 10
matrix size = 77
fillins = 0
solver = Normal
Matrix Compiler1: 8.88 KB object code size  2.1/1.3/[0.9]
Matrix Compiler2: off  [0.7]/1.3/1.1

