Circuit: *** SPICE deck for cell carry-out-3x{lay} from library carry-out

Direct Newton iteration for .op point succeeded.

delay_a_to_y=-4.86116e-010 FROM 9.75e-010 TO 4.88884e-010


Date: Fri Sep 22 18:48:45 2023
Total elapsed time: 0.138 seconds.

tnom = 27
temp = 27
method = modified trap
totiter = 2554
traniter = 2545
tranpoints = 1179
accept = 1152
rejected = 27
matrix size = 101
fillins = 0
solver = Normal
Thread vector: 39.4/27.6[2] 6.8/3.8[2] 1.9/2.1[1] 0.5/12.7[1]  2592/500
Matrix Compiler1: 11.94 KB object code size  4.2/2.2/[1.5]
Matrix Compiler2: 12.59 KB object code size  1.9/2.2/[0.9]

