Circuit: *** SPICE deck for cell carry-out-1x{lay} from library carry-out-1x

Direct Newton iteration for .op point succeeded.

delay_a_to_y=-4.82927e-010 FROM 9.75e-010 TO 4.92073e-010


Date: Fri Sep 22 23:11:56 2023
Total elapsed time: 0.167 seconds.

tnom = 27
temp = 27
method = modified trap
totiter = 2542
traniter = 2531
tranpoints = 1179
accept = 1152
rejected = 27
matrix size = 53
fillins = 0
solver = Normal
Matrix Compiler1: 5.82 KB object code size  1.3/0.7/[0.5]
Matrix Compiler2: 6.44 KB object code size  0.5/0.8/[0.5]

